
data_26962-ICSD
_database_code_ICSD 26962
_audit_creation_date 1986-09-24
_audit_update_record 2007-08-01
_chemical_name_systematic 'Carbon oxide - LT'
_chemical_formula_structural 'C O'
_chemical_formula_sum 'C1 O1'
_chemical_name_structure_type CO
_exptl_crystal_density_diffrn 1.04
_cell_measurement_temperature 20.
_cell_length_a 5.63
_cell_length_b 5.63
_cell_length_c 5.63
_cell_angle_alpha 90.
_cell_angle_beta 90.
_cell_angle_gamma 90.
_cell_volume 178.45
_cell_formula_units_Z 4
_symmetry_space_group_name_H-M 'P 21 3'
_symmetry_Int_Tables_number 198
loop_
_symmetry_equiv_pos_site_id
_symmetry_equiv_pos_as_xyz
1 '-z+1/2, -x, y+1/2'
2 '-y+1/2, -z, x+1/2'
3 '-x+1/2, -y, z+1/2'
4 '-z, x+1/2, -y+1/2'
5 '-y, z+1/2, -x+1/2'
6 '-x, y+1/2, -z+1/2'
7 'z+1/2, -x+1/2, -y'
8 'y+1/2, -z+1/2, -x'
9 'x+1/2, -y+1/2, -z'
10 'z, x, y'
11 'y, z, x'
12 'x, y, z'
loop_
_atom_type_symbol
_atom_type_oxidation_number
C2+ 2
O2- -2
loop_
_atom_site_label
_atom_site_type_symbol
_atom_site_symmetry_multiplicity
_atom_site_Wyckoff_symbol
_atom_site_fract_x
_atom_site_fract_y
_atom_site_fract_z
_atom_site_B_iso_or_equiv
_atom_site_occupancy
_atom_site_attached_hydrogens
C1 C2+ 4 a -.042 -.042 -.042 . 1. 0
O1 O2- 4 a 0.067 0.067 0.067 . 1. 0
